FoamFile { version 2.0; format ascii; class dictionary; object thermophysicalProperties; }
thermoType { type heBoussinesqThermo; mixture pureMixture; transport const; thermo hConst; equationOfState Boussinesq; specie specie; energy sensibleEnthalpy; }
mixture { specie { molWeight 28.9; } equationOfState { rho0 1.2; T0 293.15; beta 3e-03; } thermodynamics { Cp 1000; Hf 0; } transport { mu 1.8e-05; Pr 0.7; } }
